Questionable use of curly braces in "b§r§therm1 vcc n001  r={{r0therm1}*exp(-{btherm1}*(1/({t0therm})-1/((time+273.15))))}"
    Error: undefined symbol in: "(r0therm1)*exp(-(btherm1)*(1/((t0therm))-1/(([time]+273.15))))"
Questionable use of curly braces in "b§r§therm2 vcc n002  r={{r0therm2}*exp(-{btherm2}*(1/({t0therm})-1/((time+273.15))))}"
    Error: undefined symbol in: "(r0therm2)*exp(-(btherm2)*(1/((t0therm))-1/(([time]+273.15))))"
Questionable use of curly braces in "b§r§therm3 vcc n003  r={{r0therm3}*exp(-{btherm3}*(1/({t0therm})-1/((time+273.15))))}"
    Error: undefined symbol in: "(r0therm3)*exp(-(btherm3)*(1/((t0therm))-1/(([time]+273.15))))"
LTspice 24.0.12 for Windows
Circuit: * C:\TeamPhantom\BMS_Links\bms-link-hw\Simulation\LTSpice\thermistor.asc
Start Time: Fri May 30 18:56:23 2025
solver = Normal
Maximum thread count: 4
tnom = 27
temp = 27
method = modified trap
Direct Newton iteration for .op point succeeded.
Total elapsed time: 0.134 seconds.

